/*--------------------------------*- C++ -*----------------------------------*\
| =========                 |                                                 |
| \\      /  F ield         | OpenFOAM: The Open Source CFD Toolbox           |
|  \\    /   O peration     | Version:  v2012                                 |
|   \\  /    A nd           | Web:      www.OpenFOAM.com                      |
|    \\/     M anipulation  |                                                 |
\*---------------------------------------------------------------------------*/
FoamFile
{
    version         2.0;
    format          ascii;
    class           dictionary;
    object          sampleDict;
}
// * * * * * * * * * * * * * * * * * * * * * * * * * * * * * * * * * * * * //

samples
{
    type                    sets;
    libs                    (sampling);
    setFormat               raw;
    interpolationScheme     cell;
    fields                  (U.air k.air epsilon.air nut.air omega.air);
    writeControl            writeTime;

    sets
    (
        x_0mPatch
        {
            type        face;
            axis        z;
            start       (0 0 0);
            end         (0 0 5);
        }

        x_0mCell
        {
            type        midPoint;
            axis        z;
            start       (5 0 0);
            end         (5 0 5);
        }
    );
}


// *********************************************************************** //
