/*--------------------------------*- C++ -*----------------------------------*\
| =========                 |                                                 |
| \\      /  F ield         | OpenFOAM: The Open Source CFD Toolbox           |
|  \\    /   O peration     | Version:  v2012                                 |
|   \\  /    A nd           | Website:  www.openfoam.com                      |
|    \\/     M anipulation  |                                                 |
\*---------------------------------------------------------------------------*/
FoamFile
{
    version     2.0;
    format      ascii;
    class       polyBoundaryMesh;
    location    "constant/polyMesh";
    object      boundary;
}
// * * * * * * * * * * * * * * * * * * * * * * * * * * * * * * * * * * * * * //

6
(
    top
    {
        type            patch;
        nFaces          200;
        startFace       38020;
    }
    ground
    {
        type            wall;
        inGroups        1(wall);
        nFaces          200;
        startFace       38220;
    }
    inlet
    {
        type            cyclic;
        inGroups        1(cyclic);
        nFaces          280;
        startFace       38420;
        matchTolerance  0.0001;
        transform       unknown;
        neighbourPatch  outlet;
    }
    outlet
    {
        type            cyclic;
        inGroups        1(cyclic);
        nFaces          280;
        startFace       38700;
        matchTolerance  0.0001;
        transform       unknown;
        neighbourPatch  inlet;
    }
    front
    {
        type            cyclic;
        inGroups        1(cyclic);
        nFaces          3500;
        startFace       38980;
        matchTolerance  0.0001;
        transform       unknown;
        neighbourPatch  back;
    }
    back
    {
        type            cyclic;
        inGroups        1(cyclic);
        nFaces          3500;
        startFace       42480;
        matchTolerance  0.0001;
        transform       unknown;
        neighbourPatch  front;
    }
)

// ************************************************************************* //
