/*--------------------------------*- C++ -*----------------------------------*\
| =========                 |                                                 |
| \\      /  F ield         | OpenFOAM: The Open Source CFD Toolbox           |
|  \\    /   O peration     | Version:  v2012                                 |
|   \\  /    A nd           | Website:  www.openfoam.com                      |
|    \\/     M anipulation  |                                                 |
\*---------------------------------------------------------------------------*/
FoamFile
{
    version     2.0;
    format      ascii;
    class       polyBoundaryMesh;
    location    "constant/polyMesh";
    object      boundary;
}
// * * * * * * * * * * * * * * * * * * * * * * * * * * * * * * * * * * * * * //

6
(
    top
    {
        type            patch;
        nFaces          25;
        startFace       5365;
    }
    ground
    {
        type            wall;
        inGroups        1(wall);
        nFaces          25;
        startFace       5390;
    }
    inlet
    {
        type            cyclic;
        inGroups        1(cyclic);
        nFaces          110;
        startFace       5415;
        matchTolerance  0.0001;
        transform       unknown;
        neighbourPatch  outlet;
    }
    outlet
    {
        type            cyclic;
        inGroups        1(cyclic);
        nFaces          110;
        startFace       5525;
        matchTolerance  0.0001;
        transform       unknown;
        neighbourPatch  inlet;
    }
    front
    {
        type            cyclic;
        inGroups        1(cyclic);
        nFaces          2750;
        startFace       5635;
        matchTolerance  0.0001;
        transform       unknown;
        neighbourPatch  back;
    }
    back
    {
        type            cyclic;
        inGroups        1(cyclic);
        nFaces          2750;
        startFace       8385;
        matchTolerance  0.0001;
        transform       unknown;
        neighbourPatch  front;
    }
)

// ************************************************************************* //
