/*--------------------------------*- C++ -*----------------------------------*\
| =========                 |                                                 |
| \\      /  F ield         | OpenFOAM: The Open Source CFD Toolbox           |
|  \\    /   O peration     | Version:  v2012                                 |
|   \\  /    A nd           | Web:      www.OpenFOAM.com                      |
|    \\/     M anipulation  |                                                 |
\*---------------------------------------------------------------------------*/
FoamFile
{
    version         2.0;
    format          ascii;
    class           dictionary;
    object          sampleDict;
}
// * * * * * * * * * * * * * * * * * * * * * * * * * * * * * * * * * * * * //

samples
{
    type                    sets;
    libs                    (sampling);
    setFormat               raw;
    interpolationScheme     cellPoint;
    fields                  (U k epsilon nut omega);
    writeControl            writeTime;

    sets
    (
        x_0mPatch    
        {
            type        face;
            axis        z;
            start       (0.5 0.025 0);
            end         (0.5 0.025 10);
        }
        x_0mCell    
        {
            type        midPoint;
            axis        z;
            start       (0.5 0.025 0);
            end         (0.5 0.025 10);
        }
    );
}


// *********************************************************************** //
