/*--------------------------------*- C++ -*----------------------------------*\
| =========                 |                                                 |
| \\      /  F ield         | OpenFOAM: The Open Source CFD Toolbox           |
|  \\    /   O peration     | Version:  v2012                                 |
|   \\  /    A nd           | Website:  www.openfoam.com                      |
|    \\/     M anipulation  |                                                 |
\*---------------------------------------------------------------------------*/
FoamFile
{
    version     2.0;
    format      ascii;
    class       dictionary;
    object      controlDict;
}
// * * * * * * * * * * * * * * * * * * * * * * * * * * * * * * * * * * * * * //

// Make sure all utilities know specialised models
libs                (atmosphericModels);

application         MPPICFoam;

startFrom           latestTime;

startTime           0;

stopAt              endTime;

endTime             50;

deltaT              0.0002;

writeControl        timeStep;

writeInterval       50;

purgeWrite          0;

writeFormat         binary;

writePrecision      12;

writeCompression    off;

timeFormat          general;

timePrecision       6;

runTimeModifiable   no;

maxAlphaCo          1.0;

functions
{
    #include    "sampleDict"

    minMax
    {
        type    fieldMinMax;
        libs    (fieldFunctionObjects);

        writeControl    writeTime;
        fields          (U.air);
    }
}


// ************************************************************************* //
